SUMMARY OF JOB INFORMATION
  STEP      INC     ATT  ITRS     TOT TIME     STEP TIME      INC TIME
     1          1     1     2  0.500000E+02  0.500000E+02  0.500000E+02
     1          2     1     2  0.100000E+03  0.100000E+03  0.500000E+02
