 Abaqus/Standard 2021.HF4                  DATE 17-okt-2022 TIME 14:06:23
 SUMMARY OF JOB INFORMATION:
 STEP  INC ATT SEVERE EQUIL TOTAL  TOTAL      STEP       INC OF       DOF    IF
               DISCON ITERS ITERS  TIME/    TIME/LPF    TIME/LPF    MONITOR RIKS
               ITERS               FREQ
   1     1   1     0     2     2  50.0       50.0       50.00     
   1     2   1     0     1     1  100.       100.       50.00     
                          
 THE ANALYSIS HAS COMPLETED SUCCESSFULLY
