#
#   COMM file created by ADA (Assembly for Design and Analysis)
#

# Units: N, m

DEBUT(LANG="EN", INFO=1)

mesh = LIRE_MAILLAGE(FORMAT="MED", UNITE=20)

sh_sets = ('elMyBeam_e1_top_fl_sh','elMyBeam_e2_top_fl_sh','elMyBeam_e3_web_sh','elMyBeam_e4_top_fl_sh','elMyBeam_e5_top_fl_sh',)


model = AFFE_MODELE(
    AFFE=(
        _F(GROUP_MA=sh_sets, PHENOMENE='MECANIQUE', MODELISATION='DKT',),
    ),
    MAILLAGE=mesh
)

# Materials
nl_mat=(	
	1.0000E-05,3.2000E+08,4.0000E-03,3.5700E+08,1.5000E-02,3.6610E+08,1.6432E-02,3.7190E+08,
	1.7864E-02,3.7728E+08,1.9296E-02,3.8230E+08,2.0729E-02,3.8701E+08,2.2161E-02,3.9145E+08,
	2.3593E-02,3.9565E+08,2.5025E-02,3.9963E+08,2.6457E-02,4.0343E+08,2.7889E-02,4.0705E+08,
	2.9322E-02,4.1052E+08,3.0754E-02,4.1385E+08,3.2186E-02,4.1705E+08,3.3618E-02,4.2013E+08,
	3.5050E-02,4.2310E+08,3.6482E-02,4.2597E+08,3.7915E-02,4.2874E+08,3.9347E-02,4.3143E+08,
	4.0779E-02,4.3403E+08,4.2211E-02,4.3656E+08,4.3643E-02,4.3902E+08,4.5075E-02,4.4141E+08,
	4.6508E-02,4.4374E+08,4.7940E-02,4.4601E+08,4.9372E-02,4.4822E+08,5.0804E-02,4.5038E+08,
	5.2236E-02,4.5249E+08,5.3668E-02,4.5454E+08,5.5101E-02,4.5656E+08,5.6533E-02,4.5853E+08,
	5.7965E-02,4.6045E+08,5.9397E-02,4.6234E+08,6.0829E-02,4.6419E+08,6.2261E-02,4.6601E+08,
	6.3693E-02,4.6779E+08,6.5126E-02,4.6953E+08,6.6558E-02,4.7125E+08,6.7990E-02,4.7293E+08,
	6.9422E-02,4.7458E+08,7.0854E-02,4.7621E+08,7.2286E-02,4.7780E+08,7.3719E-02,4.7938E+08,
	7.5151E-02,4.8092E+08,7.6583E-02,4.8244E+08,7.8015E-02,4.8394E+08,7.9447E-02,4.8541E+08,
	8.0879E-02,4.8687E+08,8.2312E-02,4.8830E+08,8.3744E-02,4.8971E+08,8.5176E-02,4.9110E+08,
	8.6608E-02,4.9247E+08,8.8040E-02,4.9382E+08,8.9472E-02,4.9515E+08,9.0905E-02,4.9647E+08,
	9.2337E-02,4.9777E+08,9.3769E-02,4.9905E+08,9.5201E-02,5.0031E+08,9.6633E-02,5.0156E+08,
	9.8065E-02,5.0280E+08,9.9497E-02,5.0402E+08,1.0093E-01,5.0522E+08,1.0236E-01,5.0641E+08,
	1.0379E-01,5.0759E+08,1.0523E-01,5.0875E+08,1.0666E-01,5.0990E+08,1.0809E-01,5.1103E+08,
	1.0952E-01,5.1216E+08,1.1095E-01,5.1327E+08,1.1239E-01,5.1437E+08,1.1382E-01,5.1546E+08,
	1.1525E-01,5.1653E+08,1.1668E-01,5.1760E+08,1.1812E-01,5.1865E+08,1.1955E-01,5.1970E+08,
	1.2098E-01,5.2073E+08,1.2241E-01,5.2175E+08,1.2384E-01,5.2277E+08,1.2528E-01,5.2377E+08,
# ... 30 like lines cut
	2.9857E-01,6.0527E+08,3.0000E-01,6.0575E+08,)
Traction=DEFI_FONCTION(
    NOM_PARA='EPSI', NOM_RESU='SIGM', VALE=nl_mat, INTERPOL='LIN', PROL_DROITE='LINEAIRE', PROL_GAUCHE='CONSTANT'
)

S420 = DEFI_MATERIAU(
    ELAS=_F(E=210000000000.0, NU=0.3, RHO=7850), TRACTION=_F(SIGM=Traction,),
)


# Sections

material = AFFE_MATERIAU(
    MODELE=model,
    AFFE=(
		_F(MATER=(S420,), GROUP_MA="elMyBeam_e1_top_fl_sh"),
		_F(MATER=(S420,), GROUP_MA="elMyBeam_e2_top_fl_sh"),
		_F(MATER=(S420,), GROUP_MA="elMyBeam_e3_web_sh"),
		_F(MATER=(S420,), GROUP_MA="elMyBeam_e4_top_fl_sh"),
		_F(MATER=(S420,), GROUP_MA="elMyBeam_e5_top_fl_sh"),

    )
)


# Shell elements:
#   EPAIS: thickness
#   VECTEUR: a direction of reference in the tangent plan

element = AFFE_CARA_ELEM(
        MODELE=model,
        COQUE=(
            _F(
                GROUP_MA=("elMyBeam_e1_top_fl_sh"),
                EPAIS=0.0135,
                VECTEUR=(1.0, 0.0, 0.0),
            ),
            _F(
                GROUP_MA=("elMyBeam_e2_top_fl_sh"),
                EPAIS=0.0135,
                VECTEUR=(1.0, 0.0, 0.0),
            ),
            _F(
                GROUP_MA=("elMyBeam_e3_web_sh"),
                EPAIS=0.0086,
                VECTEUR=(1.0, 0.0, 0.0),
            ),
            _F(
                GROUP_MA=("elMyBeam_e4_top_fl_sh"),
                EPAIS=0.0135,
                VECTEUR=(1.0, 0.0, 0.0),
            ),
            _F(
                GROUP_MA=("elMyBeam_e5_top_fl_sh"),
                EPAIS=0.0135,
                VECTEUR=(1.0, 0.0, 0.0),
            ),

        ),
        POUTRE=(),
    )


# Boundary Conditions
dofs = dict(
    GROUP_NO="bc_nodes",
    DX=0, DY=0, DZ=0, DRX=0, DRY=0, DRZ=0, 
)
Fixed = AFFE_CHAR_MECA(
    MODELE=model, DDL_IMPO=_F(**dofs)
)

# Step Information

grav = AFFE_CHAR_MECA(
    MODELE=model, PESANTEUR=_F(DIRECTION=(0.0, 0.0, 1.0), GRAVITE=-784.8000000000001)
)

timeReel = DEFI_LIST_REEL(DEBUT=0.0, INTERVALLE=_F(JUSQU_A=1.0, NOMBRE=10))
timeInst = DEFI_LIST_INST(METHODE="AUTO", DEFI_LIST=_F(LIST_INST=timeReel))
rampFunc = DEFI_FONCTION(NOM_PARA="INST", VALE=(0.0, 0.0, 1.0, 1.0))

result = STAT_NON_LINE(
    MODELE=model,
    CHAM_MATER=material,
    CARA_ELEM=element,
    COMPORTEMENT=(_F(DEFORMATION="PETIT", RELATION="VMIS_ISOT_TRAC", TOUT="OUI")),
    CONVERGENCE=_F(ARRET="OUI", ITER_GLOB_MAXI=8,),
    EXCIT=(_F(CHARGE=Fixed),_F(CHARGE=Fixed),_F(CHARGE=grav, FONC_MULT=rampFunc)),
    INCREMENT=_F(LIST_INST=timeInst),
    ARCHIVAGE=_F(LIST_INST=timeReel),
)

result = CALC_CHAMP(
    reuse=result, RESULTAT=result,
    CONTRAINTE=("EFGE_ELNO", "EFGE_NOEU", "SIGM_ELNO"),
    DEFORMATION=("EPSI_ELNO", "EPSP_ELNO"),
)

stress = POST_CHAMP(
    EXTR_COQUE=_F(
        NIVE_COUCHE='MOY',
    NOM_CHAM=('SIGM_ELNO', ),
    NUME_COUCHE=1),
    RESULTAT=result
)

stress = CALC_CHAMP(
    reuse=stress,
    CONTRAINTE=('SIGM_NOEU', ),
    RESULTAT=stress
)

strain = POST_CHAMP(
    EXTR_COQUE=_F(
        NIVE_COUCHE='MOY',
    NOM_CHAM=('EPSI_ELNO', ),
    NUME_COUCHE=1),
    RESULTAT=result
)

strainP = POST_CHAMP(
    EXTR_COQUE=_F(
        NIVE_COUCHE='MOY',
    NOM_CHAM=('EPSP_ELNO', ),
    NUME_COUCHE=1),
    RESULTAT=result
)

IMPR_RESU(
    RESU=(
        _F(
            NOM_CHAM=("DEPL", "EFGE_ELNO", "EFGE_NOEU"),
            NOM_CHAM_MED=("DISP", "GEN_FORCES_ELEM", "GEN_FORCES_NODES"),
            RESULTAT=result,
        ),
        _F(
            NOM_CHAM=("SIGM_ELNO", "SIGM_NOEU"),
            NOM_CHAM_MED=("STRESSES_ELEM", "STRESSES_NODES"),
            RESULTAT=stress,
        ),
        _F(
            NOM_CHAM=("EPSI_ELNO",),
            NOM_CHAM_MED=("STRAINS_ELEM",),
            RESULTAT=strain,
        ),
        _F(
            NOM_CHAM=("EPSP_ELNO",),
            NOM_CHAM_MED=("PLASTIC_STRAINS_ELEM",),
            RESULTAT=strainP,
        ),
    ),
    UNITE=80,
)

# Results Information

FIN()
